%rwf=temp.rwf
%nosave
%chk=temp.chk
# HF/GEN
nosymm int=noraff iop(99/6=1) scf=conventional symm=noint charge

title

0 1
 C               
 C  1 B1
 H  1 B2    2 A1
 H  1 B2    2 A2    3 D1    0
 H  1 B2    2 A3    3 D2    0
 H  2 B2    1 A4    5 D3    0
 H  2 B2    1 A5    6 D4    0
 H  2 B2    1 A6    6 D5    0

   B1             1.540000000000
   B2             1.120000000000
   A1           110.72597000
   A2           110.73703000
   A3           110.69128000
   A4           110.71056000
   A5           110.70728000
   A6           110.73644000
   D1           120.00000000
   D2          -120.00000000
   D3            60.000000000000
   D4           120.00000000
   D5          -120.00000000

-5.230000000000 -6.000000000000 -6.000000000000 3.147236863932
-5.230000000000 -6.000000000000 6.000000000000 4.057919370756
-5.230000000000 6.000000000000 -6.000000000000 -3.730131837065
-5.230000000000 6.000000000000 6.000000000000 4.133758561390
6.770000000000 -6.000000000000 -6.000000000000 1.323592462254
6.770000000000 -6.000000000000 6.000000000000 -4.024595950006
6.770000000000 6.000000000000 -6.000000000000 -2.215017811330
6.770000000000 6.000000000000 6.000000000000 0.468815192050

-H     0 
S   3   1.050000000000
      3.42525091             0.15432897       
      0.62391373             0.53532814       
      0.16885540             0.44463454       
****
-C     0 
S   3   1.00
     71.6168370              0.15432897       
     13.0450960              0.53532814       
      3.5305122              0.44463454       
S   3   1.050000000000
      2.9412494             -0.09996723   
      0.6834831              0.39951283        
      0.2222899              0.70011547        
P   3   1.050000000000
      2.9412494              0.15591627       
      0.6834831              0.60768372       
      0.2222899              0.39195739       
****
-O     0 
S   3   1.00
    130.7093200              0.15432897       
     23.8088610              0.53532814       
      6.4436083              0.44463454       
S   3   1.050000000000
      5.0331513             -0.09996723       
      1.1695961              0.39951283        
      0.3803890              0.70011547       
P   3   1.050000000000
      5.0331513              0.15591627       
      1.1695961              0.60768372       
      0.3803890              0.39195739       
****

